
     RDKit          3D

 39 44  0  0  1  0  0  0  0  0999 V2000
  108.6930   67.6290   18.3910 C   0  0  0  0  0  0  0  0  0  0  0  0
  110.1400   67.4650   18.1300 N   0  0  0  0  0  0  0  0  0  0  0  0
  110.7170   68.6370   17.4150 C   0  0  0  0  0  0  0  0  0  0  0  0
  112.1250   68.3490   16.8720 C   0  0  0  0  0  0  0  0  0  0  0  0
  112.1220   67.1750   16.0010 N   0  0  0  0  0  0  0  0  0  0  0  0
  112.9800   67.1460   14.8830 C   0  0  0  0  0  0  0  0  0  0  0  0
  114.2360   67.7930   14.9260 C   0  0  0  0  0  0  0  0  0  0  0  0
  115.1020   67.7590   13.8170 C   0  0  0  0  0  0  0  0  0  0  0  0
  114.7510   67.0840   12.6240 C   0  0  0  0  0  0  0  0  0  0  0  0
  115.6700   67.0270   11.4590 C   0  0  0  0  0  0  0  0  0  0  0  0
  116.9780   67.5590   11.4530 C   0  0  0  0  0  0  0  0  0  0  0  0
  117.7810   67.4810   10.3760 N   0  0  0  0  0  0  0  0  0  0  0  0
  117.3140   66.8380    9.2830 C   0  0  0  0  0  0  0  0  0  0  0  0
  118.1280   66.7280    8.1420 C   0  0  0  0  0  0  0  0  0  0  0  0
  117.6830   66.0530    7.0000 C   0  0  0  0  0  0  0  0  0  0  0  0
  116.4030   65.4860    6.9850 C   0  0  0  0  0  0  0  0  0  0  0  0
  115.5390   65.6150    8.0920 C   0  0  0  0  0  0  0  0  0  0  0  0
  114.1690   65.0800    7.9590 C   0  0  0  0  0  0  0  0  0  0  0  0
  113.5970   64.2390    8.9380 C   0  0  0  0  0  0  0  0  0  0  0  0
  112.3240   63.6740    8.7490 C   0  0  0  0  0  0  0  0  0  0  0  0
  111.8240   62.8460    9.6920 F   0  0  0  0  0  0  0  0  0  0  0  0
  111.5970   63.9360    7.5700 C   0  0  0  0  0  0  0  0  0  0  0  0
  110.2720   63.2330    7.3040 C   0  0  0  0  0  0  0  0  0  0  0  0
  110.3870   61.9380    6.6200 N   0  0  0  0  0  0  0  0  0  0  0  0
  111.1120   60.9340    7.3930 C   0  0  0  0  0  0  0  0  0  0  0  0
  111.1650   59.5820    6.6690 C   0  0  0  0  0  0  0  0  0  0  0  0
  111.7290   59.7490    5.3730 O   0  0  0  0  0  0  0  0  0  0  0  0
  110.9830   60.6620    4.5730 C   0  0  0  0  0  0  0  0  0  0  0  0
  110.9410   62.0330    5.2700 C   0  0  0  0  0  0  0  0  0  0  0  0
  112.1320   64.8240    6.6160 C   0  0  0  0  0  0  0  0  0  0  0  0
  111.4390   65.1160    5.4920 F   0  0  0  0  0  0  0  0  0  0  0  0
  113.4050   65.3860    6.8110 C   0  0  0  0  0  0  0  0  0  0  0  0
  116.0020   66.2760    9.2650 C   0  0  0  0  0  0  0  0  0  0  0  0
  115.2090   66.3980   10.3550 N   0  0  0  0  0  0  0  0  0  0  0  0
  113.4850   66.4490   12.5890 C   0  0  0  0  0  0  0  0  0  0  0  0
  112.6180   66.4710   13.6960 C   0  0  0  0  0  0  0  0  0  0  0  0
  111.0020   66.2410   16.0880 C   0  0  0  0  0  0  0  0  0  0  0  0
  110.4760   66.1410   17.5310 C   0  0  0  0  0  0  0  0  0  0  0  0
  110.5830   67.4560   19.0370 H   0  0  0  0  0  0  0  0  0  0  0  0
  1  2  1  0
  2  3  1  0
  2 38  1  0
  2 39  1  0
  3  4  1  0
  4  5  1  0
  5  6  1  0
  5 37  1  0
  6  7  2  0
  6 36  1  0
  7  8  1  0
  8  9  2  0
  9 10  1  0
  9 35  1  0
 10 11  2  0
 10 34  1  0
 11 12  1  0
 12 13  2  0
 13 14  1  0
 13 33  1  0
 14 15  2  0
 15 16  1  0
 16 17  2  0
 17 18  1  0
 17 33  1  0
 18 19  2  0
 18 32  1  0
 19 20  1  0
 20 21  1  0
 20 22  2  0
 22 23  1  0
 22 30  1  0
 23 24  1  0
 24 25  1  0
 24 29  1  0
 25 26  1  0
 26 27  1  0
 27 28  1  0
 28 29  1  0
 30 31  1  0
 30 32  2  0
 33 34  2  0
 35 36  2  0
 37 38  1  0
M  CHG  1   2   1
M  END
